Version 4.1
SHEET 1 1112 680
WIRE 960 -384 720 -384
WIRE 1104 -384 1040 -384
WIRE 1008 -272 960 -272
WIRE 1104 -272 1104 -384
WIRE 1104 -272 1072 -272
WIRE 496 -240 320 -240
WIRE 320 -160 320 -240
WIRE 368 -160 320 -160
WIRE 496 -144 496 -240
WIRE 496 -144 432 -144
WIRE 544 -144 496 -144
WIRE 720 -144 720 -384
WIRE 720 -144 624 -144
WIRE 800 -144 800 -240
WIRE 800 -144 720 -144
WIRE 832 -144 800 -144
WIRE 960 -144 960 -272
WIRE 960 -144 912 -144
WIRE 1008 -144 960 -144
WIRE 368 -128 112 -128
WIRE 1104 -128 1104 -272
WIRE 1104 -128 1072 -128
WIRE 112 -64 112 -128
FLAG 528 416 0
FLAG 368 416 0
FLAG 224 416 0
FLAG 224 336 5V0
FLAG 368 336 2V5
FLAG 528 336 TRACK
FLAG 112 16 0
FLAG 400 -112 0
FLAG 400 -176 5V0
FLAG 1040 -96 0
FLAG 1040 -160 5V0
FLAG 848 -96 0
FLAG 896 -96 TRACK
FLAG 1008 -112 2V5
SYMBOL voltage 224 320 R0
WINDOW 123 0 0 Left 0
WINDOW 39 0 0 Left 0
SYMATTR InstName V1
SYMATTR Value 5
SYMBOL voltage 368 320 R0
WINDOW 123 0 0 Left 0
WINDOW 39 0 0 Left 0
SYMATTR InstName V2
SYMATTR Value 2.5
SYMBOL voltage 528 320 R0
WINDOW 123 0 0 Left 0
WINDOW 39 0 0 Left 0
SYMATTR InstName V3
SYMATTR Value PULSE(0 5 0 2n 2n 150n 500n)
SYMBOL voltage 112 -80 R0
WINDOW 123 24 44 Left 2
WINDOW 39 0 0 Left 0
SYMATTR Value2 AC 1
SYMATTR InstName V4
SYMATTR Value SINE(2.5 2 1Meg)
SYMBOL OpAmps\\UniversalOpAmp2 400 -144 R0
SYMATTR InstName U1
SYMATTR Value2 Avol=10G GBW=10G Slew=10G
SYMBOL OpAmps\\UniversalOpAmp2 1040 -128 R0
SYMATTR InstName U2
SYMATTR Value2 Avol=10G GBW=10G Slew=10G
SYMBOL cap 1008 -288 M90
WINDOW 0 0 32 VBottom 2
WINDOW 3 32 32 VTop 2
SYMATTR InstName C1
SYMATTR Value 47p
SYMBOL res 944 -400 M90
WINDOW 0 0 56 VBottom 2
WINDOW 3 32 56 VTop 2
SYMATTR InstName R1
SYMATTR Value 120
SYMBOL sw 816 -144 R270
SYMATTR InstName S1
SYMATTR Value mysw
SYMBOL res 640 -160 R90
WINDOW 0 0 56 VBottom 2
WINDOW 3 32 56 VTop 2
SYMATTR InstName R2
SYMATTR Value 120
TEXT 72 440 Left 2 ;.tran 20u
TEXT 408 -488 Left 2 !.model mysw SW(Ron=1 Roff=10Meg Vt=2.5)
TEXT 72 472 Left 2 !.ac dec 1024 1 1G
